          46
  Built with Packmol                                             
  F           10.520575        4.585776       11.206785
  F            7.970060        4.614726       12.751301
  F           10.582866        4.697450       14.185902
  F            9.671632        6.375227       12.649757
  F            9.710693        2.890076       12.779584
  As           9.691159        4.632651       12.714676
  F            1.236681        1.222651       10.750640
  F            1.143651        2.993549       13.147880
  F            3.488516        3.095982       11.308642
  F            1.163037        3.671688       10.793145
  F            2.749536        1.203114       12.678306
  As           1.956289        2.437405       11.735729
  F            3.566334        6.394557       14.952153
  F            1.912507        5.611297       12.597826
  F            1.299816        4.486740       15.290718
  F            1.182268        6.832808       14.592741
  F            3.336822        4.162246       13.967717
  As           2.259541        5.497524       14.280226
  F            7.409332        1.656327       12.932194
  F            4.765244        1.566111       14.307749
  F            6.787973        3.609644       15.097826
  F            5.668095        3.380594       12.930239
  F            6.973593        1.174134       15.294953
  As           6.320840        2.277366       14.112600
  F            8.231511        8.548840       12.876913
  F            8.562462        6.498864       15.016904
  F            6.464704        8.601889       15.278386
  F            6.612273        6.846928       13.574461
  F            8.893505        8.919460       15.207022
  As           7.752888        7.883192       14.390747
  F            5.154859        8.955977       13.042074
  F            3.245761        8.916549       10.751815
  F            4.306602        6.356444       11.852797
  F            2.898039        8.002100       12.998568
  F            5.573432        8.150537       10.765878
  As           4.235733        8.076316       11.882219
  H            6.612191        5.704338       10.799257
  F            7.381306        6.257030       10.796731
  H            9.453134        2.011496       15.231715
  F            9.889071        1.192189       15.042746
  H            5.170975        1.131253       11.688513
  F            5.280593        1.266359       10.757522
  H            9.770796        8.210091       10.786160
  F           10.504932        8.473061       11.323659
  H            8.063864        2.935814       10.744868
  F            7.134336        3.114642       10.776669
