6

F       9.398875006562545      7.499999947845245      7.736332154408495
F       7.499999938803759      9.398874950318280      7.736332124708270
F       5.601124729366911      7.500000077145642      7.736332067578164
F       7.500000077756688      5.601124766787549      7.736332050591188
F       7.500000186187218      7.500000187424696      9.347217339776337
I       7.500000000000000      7.500000000000000      7.500000000000000
