216

H       6.597750999999999      4.628112000000000      3.303850999999999
H       2.841020627125673      1.786729936803679     15.286545864840926
H       8.673328000000000      8.223117999999999      3.303850999999999
H      -1.409594261794612      1.053678014845557     20.979472136453918
H       3.684457999999999      9.674083000000000      3.303850999999999
H       7.127788266097367      2.873614849423307     19.479756193919105
H       6.397429426825894      6.806569414970248      9.460024004697839
H      10.475505239917297      9.656955210248489     19.582895593420403
H       1.660537728532311      6.897987572511491      7.983472844534867
H      10.923061269979039      8.315187506490336     15.703235492652391
H      10.413057446091024      1.928509004169147      7.990748072754652
H       2.337423845305465      5.756974591697245     15.795108519311402
H       5.760036000000000      3.177147000000000      3.303850999999999
H       6.345317069438345     13.277626170493518     14.002441314090831
H      12.435520390839178      6.787621578486290      9.416047455562101
H       7.131733257339381      5.551248279693572     17.944684842484303
H       5.883935281183393      7.764416002313101      8.154149686821482
H       0.995742037294880     11.189863915993188     14.996021804596969
H       9.070193971950859      2.382562608557638      8.939388297787595
H      11.088704679782058      1.362071739405683     13.662347659698602
H       3.684457999999999      6.313821000000001      0.000000000000000
H       9.511043000000001      6.313821000000001      0.000000000000000
H       2.843523000000000      4.857278000000000      0.000000000000000
H       9.401099879976162     -0.869499046332195     16.847743308566425
H       3.368719913652572      1.194668262391852      8.711971886752861
H       9.864013495023480      6.217651914988360      5.185352441885680
H       7.428738635384274      7.025120653278224      8.125336047686824
H      10.351978000000001      4.857278000000000      0.000000000000000
H       4.525393000000000      4.857278000000000      0.000000000000000
H       7.438686000000000      9.903249000000001      0.000000000000000
H       1.612101000000000      9.903249000000001      0.000000000000000
H       3.684457999999999      8.706773000000000      1.933430000000000
H       0.243640950663557      5.949854884354745      8.047328706101315
H       3.501886414357152      1.283457170518941      7.051783724092973
H       9.040234886091991      0.903423571763298      8.098367718511357
H       6.030392720357293      6.086953293773306      7.990679256615786
H       0.771166000000000      4.628112000000000      3.303850999999999
H       9.511043000000001      9.674083000000000      3.303850999999999
H       8.406979485418921      5.338852567276615      5.365484503868653
H       6.597750999999999      3.660802000000000      1.933430000000000
H       0.771166000000000      3.660802000000000      1.933430000000000
H       4.650019568619719      2.047390290068088      8.009760282227353
H      -1.255170465358543      7.610496573698836     19.011142427533244
H      11.586620999999999      3.177147000000000      3.303850999999999
H       4.055080206156141      5.797162830641220     14.505234083505238
H      11.583399999999999      9.903249000000001      0.000000000000000
H       4.522173000000000      8.223117999999999      3.303850999999999
H       0.771166000000000      1.267850000000000      0.000000000000000
H       8.670108000000001      4.857278000000000      0.000000000000000
H       5.482936597182918      5.565474307363250     11.240170804113017
H       0.771166000000000      0.296822000000000      1.369212000000000
H       6.597750999999999      0.296822000000000      1.369212000000000
H       3.684457999999999      5.342792000000001      1.369212000000000
H       9.511043000000001      5.342792000000001      1.369212000000000
H       7.435464999999999      3.177147000000000      3.303850999999999
H       5.756815000000000      9.903249000000001      0.000000000000000
H       0.492097304691836      6.549655550191627     15.628896572783791
H       4.086273668602922      6.171585391973669      5.034404975240600
H       4.802649217708684      2.847489529987859     15.411174696146148
H       7.026690014976306      1.074642572936976      5.437040954309358
H       9.099302384611699      6.415052765164576     18.107973666234937
H       3.047228596827382      2.662092165723196      7.920284816590954
H       7.300536995985802     -0.942301931305419     17.617387881414796
H       9.511043000000001      8.706773000000000      1.933430000000000
H       9.673831087570097      4.672132070305338      4.477456298766850
H       8.945035765884374      2.346647009334799      7.268275661986467
H       5.876268017086474      4.209833385531848     16.737278010205738
H       2.846743000000000      8.223117999999999      3.303850999999999
H       2.611911023346904      5.368890023709156      5.311794341374030
H      11.282460079404295      0.247092595469396      5.410850354884427
H       6.520995022002351      0.277704155869267      4.057997511711307
H       0.137348534339761      7.649909570049973      8.106470928205429
H       1.094891611008732      1.073644716161982      5.144249126157621
H      10.348758000000000      8.223117999999999      3.303850999999999
H       7.035124488205168      9.460068527714963      5.373977764776404
H       6.597750999999999      1.267850000000000      0.000000000000000
H       0.842953150273499      9.610727203002357      4.486553058469237
H       3.812653326252996      4.609772544794923      4.409166531842838
H       1.608880000000000      3.177147000000000      3.303850999999999
H       1.065514271296742     -0.274544185573107      6.129816321317531
H       5.554534658706569      0.218286552408418      5.417458038375011
H       4.037873748795205      4.868598555219246      6.057330470287931
H       9.826401831815796      4.850413543254604      6.131587328471381
N       9.511043000000001      5.342792000000001      0.342545000000000
N       3.684457999999999      8.706773000000000      2.959756000000000
N       0.771166000000000      0.296822000000000      0.342545000000000
N       0.654447950077971      0.146289187498023      5.278448923165793
N       6.442136030324173      6.930157389378047      8.434058351558528
N       0.771166000000000      3.660802000000000      2.959756000000000
N       6.597750999999999      3.660802000000000      2.959756000000000
N       3.636341383306963      1.804449109686716      7.932976960598749
N       9.377415671310418      1.889269154153591      8.088250261962280
N       6.597750999999999      0.296822000000000      0.342545000000000
N       9.511043000000001      8.706773000000000      2.959756000000000
N       9.440296612382538      5.273940330735146      5.275679983468960
N       3.635560863603152      5.254564692336357      5.188399414311184
N       6.535805172586635      0.235358067195831      5.080561375008619
N       0.700259813377076      6.820702701379505      8.386564842815844
N       3.684457999999999      5.342792000000001      0.342545000000000
F       6.453963550999446     13.055919788798056     13.076112998487469
F       5.377981000000000      7.729017000000000      0.816065000000000
F      11.204566000000000      7.729017000000000      0.816065000000000
F       6.286256709011040      2.341488635893370      7.767024124163468
F       0.453808937657120      2.160892883777374      7.583331381758091
F       0.972001426360294      5.706919497002937     15.876617689107485
F       1.872066277106064      3.173753824495813     19.222381884773633
F       4.170387094705719      8.639444382491073     12.578055761557490
F       3.515637575097485     10.014969915459101     17.844527257381966
F       2.256510454841711      7.898630273765908     17.507746269193024
F       3.920853773766129      8.914299242004473     15.648264557275292
F       4.783659086413468      7.791774394074344      5.582789904700756
F       4.905104000000000      1.274072000000000      2.800345999999998
F       7.735261537130347      6.178405289800369     18.407593045268065
F       8.291273999999998      2.683046000000000      0.816065000000000
F       5.964633215880106      4.742242447915569     17.555139340442683
F      -1.498339994852604      1.312775600505332     21.905727967929529
F      10.273726213318824     -0.667802469653116     16.433878671576387
F       8.275557660592318     -0.942603542553633     17.789147863765280
F      10.048107763324941      6.704602269776700     18.007118728780672
F       5.687372760439675      3.339635071187420     15.509591756254567
F       4.574178087232109      5.862159527662721     13.662501028064957
F      -0.993927886155999      8.241270282177041     19.742604758098203
F       3.358966007721756      5.752117131423590     15.781753821647619
F       8.205344575093292      7.979007369845467     12.512193568285420
F      10.394094576363612     10.648129448394544     19.552634678025910
F       6.529218654170760      3.190355681376881     20.154744547401695
F      11.658894138542774      0.698978094883336     14.100189331549638
F       4.187101375280509      8.169500557675525     19.369338477609112
F       7.640392847906462      5.596932341551588     13.707419711065745
F       6.597750999999999      5.616314000000000      0.816065000000000
F       2.464689000000000      2.683046000000000      0.816065000000000
F       0.771166000000000      5.616314000000000      0.816065000000000
F      11.203690000000000      6.320043000000000      2.800345999999998
F       5.377105000000000      6.320043000000000      2.800345999999998
F       8.290398000000000      1.274072000000000      2.800345999999998
F       2.463813000000000      1.274072000000000      2.800345999999998
F      11.201229107339239      4.432959715051928      7.491802254773256
F       5.270428033482314      4.542606427586175      7.406160918497350
F       8.359395682764843      9.450285585379650      7.756713330982837
F       6.957905453882888      9.296505776362995     14.455717995773757
F       5.873790044703497      9.304559014610692     17.548201196578169
F      11.435842203635161      7.674625777954040     15.159866485789982
F       8.634256418915415      7.524620820074192     14.923766003234880
F       9.170539522013479      7.163679501303406      7.584045152801989
F       3.285301635315776      7.062839928114466      7.381909032560412
F      11.088394843889779      2.987945976627262      5.543640912695143
F       5.357237605372531      2.919827239478316      5.602861308372280
F       8.071011601645369      8.177388202492999      5.687269996036293
F       2.412706468930345      8.064461207264580      5.355898317612942
F       3.684457999999999      3.388292000000000      2.800345999999998
F       9.511043000000001      3.388292000000000      2.800345999999998
F      10.731688999999999      1.274072000000000      2.800345999999998
F       1.991811000000000      6.320043000000000      2.800345999999998
F       7.818396000000000      6.320043000000000      2.800345999999998
F       4.731862301120980      9.012798941364411      7.682942509424847
F       8.531601164161792      2.807052802884776     10.697730975670215
F       3.830650869172288     10.038360377381453      5.684458160898858
F       9.611076739644856     10.043138234809847      5.765145757820309
F       0.922711721715166      4.910321578545256      5.560542253538221
F       6.737587558861281      4.894695170478647      5.496153385884680
F       1.990935000000000      7.729017000000000      0.816065000000000
F       5.973493613090453      6.403266944284206     11.185398266493470
F       4.904228000000000      2.683046000000000      0.816065000000000
F       3.146556609831630      5.274434216518777     18.802439819961847
F       7.694989499609710      4.311231988126598      7.633575966572734
F       7.817520000000000      7.729017000000000      0.816065000000000
F       2.032627091379705      7.391699582197672     13.677294250472384
F      10.758516625660107      9.015186966829635      7.660419791716174
F       1.973783359868114      4.044029251581431      7.568380266054596
F      10.730812999999998      2.683046000000000      0.816065000000000
F       6.345916328925553      6.962096984571518     15.710752457384599
F       9.511043000000001      0.570344000000000      0.816065000000000
F       2.308813976882226      9.310090757445392      7.419568274417305
F       3.684457999999999      0.570344000000000      0.816065000000000
F       0.771166000000000      8.434263000000000      2.800345999999998
F      10.458948447868783      7.782815966814657      5.592425656341277
F       1.822149803324684      2.641014669030346      5.595551735775241
F       7.753918453623212      2.681643136917881      5.842203368316857
F       8.784717464610576      4.026390945213904     16.613894802079543
F       1.690778718639820     11.375917207121852     15.700211182996410
F       1.161772900912349      6.686489207681659     11.169412726808552
F       3.308548957215380      7.947991809219169     10.122052990581473
F       3.001235520352736      4.160628867983834     21.239142456711981
F       3.848666001678308      2.842972936787261     17.744401007856947
F       6.597750999999999      8.434263000000000      2.800345999999998
F       3.662636706147099      1.776497558818009     20.239400600304002
F       3.706861872229172      2.180546216216658     14.878546687498035
F      10.026937429172094      2.135254766787187     12.892879965644774
F      10.724246546817819      4.782383226758222     13.134107523844238
F       9.258346940784417      5.402891698099427     10.960471095413350
F       8.014890300452956      2.296288206449760     18.287183734084163
F       8.502684073529336      1.738986336406896     15.677239398693782
F      10.890730036094315      2.950991460001304     15.792492811155057
F       1.815965809093878      9.010919441679441     11.803244253096222
F      10.897845975812585      3.511611474295387     10.973734984433221
F       4.533757077919304      4.389752329498786     11.001255836184963
F       4.141598429082782      1.580861555060134     10.799415538052358
F       2.044981448156471      1.752344673081497     12.460344165075325
F       2.339534861867173      4.357707437253389     12.765728279936649
F       2.346825327512819      3.287896363604522     10.488860819666908
F      10.456726993415348      3.550419066580465     18.384807212192261
Si      6.517688337521585      3.617273360705622      6.644327361639682
Si      0.692297302639461      3.521552087401869      6.565372179663325
Si      3.555412355774476      8.525720422848154      6.542556567223075
Si      6.597750999999999      7.024783000000001      1.801686000000000
Si      0.771166000000000      7.024783000000001      1.801686000000000
Si      9.511043000000001      1.978812000000000      1.801686000000000
Si      3.684457999999999      1.978812000000000      1.801686000000000
Si      9.405596508455844      8.598325158112516      6.699230302524457
I       4.110469480690722      8.306632041856334     17.464129221701960
I       2.807080498080246      7.451145134436853     11.922869899369472
I       9.435628594040574      3.862348286162423     12.069480701336285
I       3.429604747726430      2.966052361131425     11.964578061110943
I       7.054474049207884      7.458011453093232     13.942249583834043
I       3.654641373994103      3.556586986514563     19.540920492119540
I       9.603138174930654      2.423549158993192     17.103472606613920
