          56
  Built with Packmol                                             
  F            1.179573        8.789725       11.343593
  F            1.168045        6.217525       12.851952
  F            3.555620        8.000444       12.963139
  F            1.293937        8.485109       13.772407
  F            2.641563        6.853343       11.000060
  As           1.967753        7.669222       12.386237
  F            4.859946        6.427234       11.745660
  F            7.551631        6.036006       12.967652
  F            6.642646        8.772427       12.207766
  F            5.661451        7.290219       13.894580
  F            7.041379        6.866899       10.719479
  As           6.351421        7.078561       12.307031
  F            9.911308        6.028300       13.272096
  F            7.903679        7.993043       14.272448
  F           10.557743        8.939145       13.296481
  F            8.808971        7.811042       12.002570
  F           10.106177        7.495967       15.224782
  As           9.457573        7.653510       13.613678
  F            1.629320        3.509213       12.619750
  F            3.550399        1.228655       12.618009
  F            1.187399        1.188970       10.799675
  F            3.061491        2.767635       10.774769
  F            1.183259        1.183574       13.250180
  As           2.122377        1.975599       12.012473
  F            8.191122        1.199402       12.987378
  F           10.506816        1.182614       11.108876
  F            9.544481        3.756725       12.266261
  F           10.504838        1.848678       13.467133
  F            8.323454        2.243825       10.774535
  As           9.414150        2.046254       12.120831
  F            5.726003        2.148931       12.901821
  F            5.532237        3.982490       15.245325
  F            3.995496        1.427204       15.220430
  F            6.430416        1.702849       15.206126
  F            3.738734        3.336237       13.705608
  As           5.084573        2.519545       14.455872
  H            4.832020        4.048629       11.715564
  F            5.026435        4.159480       10.795276
  H            8.775532        2.108325       15.200321
  F            9.027413        1.195447       15.215256
  H            5.240465        1.189963       10.779741
  F            6.187554        1.190422       10.773711
  H            4.735883        8.899706       10.789858
  F            3.789153        8.925776       10.783813
  H           10.507753        3.733719       15.048777
  F            9.865069        4.425398       15.123282
  H            3.402120        5.680592       13.472052
  F            3.972832        5.646658       14.227135
  H            1.897988        6.563007       15.090846
  F            1.198266        5.936840       15.214609
  H            7.173332        3.855589       12.093340
  F            7.344344        4.348267       11.302747
  H            7.600923        5.156859       15.177976
  F            6.982338        5.868060       15.270495
  H            4.104185        8.896934       15.195007
  F            3.157095        8.899954       15.199982
